@<TRIPOS>MOLECULE
PPG
   70    73     1     0     0
SMALL
bcc


@<TRIPOS>ATOM
      1 O            3.9740     2.3750    -2.0450 o          1 PPG      -0.596100
      2 C            3.5100     1.9780    -0.9840 c          1 PPG       0.670700
      3 C1           4.3960     1.4840     0.1060 ca         1 PPG      -0.130600
      4 C2           5.4540     0.5720    -0.1450 ca         1 PPG       0.014000
      5 C3           6.2850     0.1950     0.9440 ca         1 PPG      -0.025000
      6 C4           7.3680    -0.7060     0.7470 ca         1 PPG      -0.014000
      7 C5           5.7330     0.0040    -1.4090 ca         1 PPG      -0.118000
      8 C6           6.7970    -0.8830    -1.6010 ca         1 PPG      -0.108000
      9 C7           7.6240    -1.2430    -0.5350 ca         1 PPG      -0.036000
     10 C8           8.7030    -2.1210    -0.7200 ca         1 PPG      -0.108000
     11 C9           9.5260    -2.4690     0.3490 ca         1 PPG      -0.128000
     12 C10          9.2760    -1.9470     1.6170 ca         1 PPG      -0.110000
     13 C11          8.2030    -1.0680     1.8310 ca         1 PPG      -0.038000
     14 C12          7.9470    -0.5390     3.1020 ca         1 PPG      -0.103000
     15 C13          6.8830     0.3410     3.3040 ca         1 PPG      -0.124000
     16 C14          6.0500     0.7170     2.2420 ca         1 PPG      -0.014000
     17 C15          4.9930     1.6110     2.4510 ca         1 PPG      -0.126000
     18 C16          4.1760     1.9960     1.3930 ca         1 PPG      -0.103000
     19 N            2.1590     1.9590    -0.7020 ns         1 PPG      -0.566900
     20 C17          1.1810     2.4190    -1.6730 c3         1 PPG       0.045000
     21 C18          0.8240     1.3510    -2.7100 c3         1 PPG       0.105400
     22 O1          -0.0770     1.8820    -3.6810 os         1 PPG      -0.411600
     23 C19         -1.4070     1.3660    -3.6060 c3         1 PPG       0.093400
     24 C20         -2.2080     1.9750    -2.4500 c3         1 PPG       0.095400
     25 O2          -1.9930     1.2890    -1.2090 os         1 PPG      -0.428600
     26 C21         -2.8080     0.1220    -1.0820 c3         1 PPG       0.084400
     27 C22         -2.6760    -0.4480     0.3330 c3         1 PPG       0.128400
     28 O3          -3.4880    -1.6080     0.5240 os         1 PPG      -0.416600
     29 C23         -4.8780    -1.3110     0.6710 c3         1 PPG       0.093400
     30 C24         -5.6810    -2.0710    -0.3850 c3         1 PPG       0.095400
     31 O4          -7.0450    -1.6550    -0.4240 os         1 PPG      -0.428600
     32 C25         -7.8520    -2.2450     0.5970 c3         1 PPG       0.092400
     33 C26         -9.2900    -1.7290     0.4700 c3         1 PPG       0.125400
     34 O5          -9.4170    -0.3290     0.7330 os         1 PPG      -0.406600
     35 C27         -9.2890     0.0120     2.1100 c3         1 PPG       0.208500
     36 C28         -9.7030     1.4060     2.3000 c1         1 PPG      -0.147100
     37 C29        -10.0450     2.5480     2.4600 c1         1 PPG      -0.122500
     38 H            5.1270     0.2570    -2.2780 ha         1 PPG       0.159000
     39 H1           6.9730    -1.2800    -2.5990 ha         1 PPG       0.137000
     40 H2           8.9130    -2.5370    -1.7030 ha         1 PPG       0.136000
     41 H3          10.3640    -3.1430     0.1920 ha         1 PPG       0.135000
     42 H4           9.9310    -2.2270     2.4400 ha         1 PPG       0.135000
     43 H5           8.5780    -0.8050     3.9480 ha         1 PPG       0.135000
     44 H6           6.7160     0.7360     4.3040 ha         1 PPG       0.135000
     45 H7           4.8090     2.0280     3.4390 ha         1 PPG       0.138000
     46 H8           3.3890     2.7260     1.5690 ha         1 PPG       0.141000
     47 H9           1.8270     1.4940     0.1330 hn         1 PPG       0.310500
     48 H10          0.2940     2.7310    -1.1150 h1         1 PPG       0.079200
     49 H11          1.5670     3.3110    -2.1790 h1         1 PPG       0.079200
     50 H12          1.7300     1.0510    -3.2500 h1         1 PPG       0.050200
     51 H13          0.4290     0.4470    -2.2310 h1         1 PPG       0.050200
     52 H14         -1.8890     1.6560    -4.5450 h1         1 PPG       0.054200
     53 H15         -1.3750     0.2710    -3.5760 h1         1 PPG       0.054200
     54 H16         -1.8990     3.0150    -2.2950 h1         1 PPG       0.064200
     55 H17         -3.2790     1.9810    -2.6860 h1         1 PPG       0.064200
     56 H18         -3.8550     0.3710    -1.2940 h1         1 PPG       0.044200
     57 H19         -2.4940    -0.6400    -1.8070 h1         1 PPG       0.044200
     58 H20         -1.6370    -0.7490     0.4930 h1         1 PPG       0.059700
     59 H21         -2.8940     0.3060     1.0980 h1         1 PPG       0.059700
     60 H22         -5.1800    -1.6390     1.6730 h1         1 PPG       0.058200
     61 H23         -5.0910    -0.2350     0.6200 h1         1 PPG       0.058200
     62 H24         -5.6010    -3.1550    -0.2430 h1         1 PPG       0.060700
     63 H25         -5.2550    -1.8630    -1.3750 h1         1 PPG       0.060700
     64 H26         -7.8490    -3.3330     0.4670 h1         1 PPG       0.036200
     65 H27         -7.4370    -2.0050     1.5780 h1         1 PPG       0.036200
     66 H28         -9.6330    -1.8790    -0.5610 h1         1 PPG       0.062700
     67 H29         -9.9650    -2.2890     1.1290 h1         1 PPG       0.062700
     68 H30         -8.2480    -0.1070     2.4230 h1         1 PPG       0.046700
     69 H31         -9.9210    -0.6440     2.7200 h1         1 PPG       0.046700
     70 H32        -10.3470     3.5630     2.5890 ha         1 PPG       0.166500
@<TRIPOS>BOND
     1     1     2 2   
     2     2     3 1   
     3     3     4 ar  
     4     4     5 ar  
     5     5     6 ar  
     6     4     7 ar  
     7     7     8 ar  
     8     8     9 ar  
     9     9    10 ar  
    10    10    11 ar  
    11    11    12 ar  
    12    12    13 ar  
    13    13    14 ar  
    14    14    15 ar  
    15    15    16 ar  
    16    16    17 ar  
    17    17    18 ar  
    18     2    19 1   
    19    19    20 1   
    20    20    21 1   
    21    21    22 1   
    22    22    23 1   
    23    23    24 1   
    24    24    25 1   
    25    25    26 1   
    26    26    27 1   
    27    27    28 1   
    28    28    29 1   
    29    29    30 1   
    30    30    31 1   
    31    31    32 1   
    32    32    33 1   
    33    33    34 1   
    34    34    35 1   
    35    35    36 1   
    36    36    37 3   
    37    18     3 ar  
    38    16     5 ar  
    39    13     6 ar  
    40     9     6 ar  
    41     7    38 1   
    42     8    39 1   
    43    10    40 1   
    44    11    41 1   
    45    12    42 1   
    46    14    43 1   
    47    15    44 1   
    48    17    45 1   
    49    18    46 1   
    50    19    47 1   
    51    20    48 1   
    52    20    49 1   
    53    21    50 1   
    54    21    51 1   
    55    23    52 1   
    56    23    53 1   
    57    24    54 1   
    58    24    55 1   
    59    26    56 1   
    60    26    57 1   
    61    27    58 1   
    62    27    59 1   
    63    29    60 1   
    64    29    61 1   
    65    30    62 1   
    66    30    63 1   
    67    32    64 1   
    68    32    65 1   
    69    33    66 1   
    70    33    67 1   
    71    35    68 1   
    72    35    69 1   
    73    37    70 1   
@<TRIPOS>SUBSTRUCTURE
     1 PPG         1 TEMP              0 ****  ****    0 ROOT
