
     RDKit          3D

 70 73  0  0  0  0  0  0  0  0999 V2000
    3.9741    2.3753   -2.0448 O   0  0  0  0  0  0  0  0  0  0  0  0
    3.5102    1.9778   -0.9838 C   0  0  0  0  0  0  0  0  0  0  0  0
    4.3959    1.4838    0.1056 C   0  0  0  0  0  0  0  0  0  0  0  0
    5.4544    0.5717   -0.1451 C   0  0  0  0  0  0  0  0  0  0  0  0
    6.2847    0.1950    0.9437 C   0  0  0  0  0  0  0  0  0  0  0  0
    7.3680   -0.7058    0.7467 C   0  0  0  0  0  0  0  0  0  0  0  0
    5.7333    0.0043   -1.4091 C   0  0  0  0  0  0  0  0  0  0  0  0
    6.7967   -0.8826   -1.6011 C   0  0  0  0  0  0  0  0  0  0  0  0
    7.6237   -1.2428   -0.5352 C   0  0  0  0  0  0  0  0  0  0  0  0
    8.7031   -2.1213   -0.7197 C   0  0  0  0  0  0  0  0  0  0  0  0
    9.5257   -2.4688    0.3495 C   0  0  0  0  0  0  0  0  0  0  0  0
    9.2761   -1.9468    1.6175 C   0  0  0  0  0  0  0  0  0  0  0  0
    8.2027   -1.0682    1.8315 C   0  0  0  0  0  0  0  0  0  0  0  0
    7.9468   -0.5390    3.1017 C   0  0  0  0  0  0  0  0  0  0  0  0
    6.8826    0.3413    3.3043 C   0  0  0  0  0  0  0  0  0  0  0  0
    6.0499    0.7174    2.2417 C   0  0  0  0  0  0  0  0  0  0  0  0
    4.9927    1.6105    2.4511 C   0  0  0  0  0  0  0  0  0  0  0  0
    4.1758    1.9965    1.3926 C   0  0  0  0  0  0  0  0  0  0  0  0
    2.1589    1.9592   -0.7020 N   0  0  0  0  0  0  0  0  0  0  0  0
    1.1811    2.4186   -1.6728 C   0  0  0  0  0  0  0  0  0  0  0  0
    0.8244    1.3509   -2.7104 C   0  0  0  0  0  0  0  0  0  0  0  0
   -0.0775    1.8820   -3.6811 O   0  0  0  0  0  0  0  0  0  0  0  0
   -1.4066    1.3659   -3.6061 C   0  0  0  0  0  0  0  0  0  0  0  0
   -2.2081    1.9749   -2.4502 C   0  0  0  0  0  0  0  0  0  0  0  0
   -1.9934    1.2888   -1.2092 O   0  0  0  0  0  0  0  0  0  0  0  0
   -2.8075    0.1219   -1.0816 C   0  0  0  0  0  0  0  0  0  0  0  0
   -2.6762   -0.4479    0.3328 C   0  0  0  0  0  0  0  0  0  0  0  0
   -3.4880   -1.6076    0.5237 O   0  0  0  0  0  0  0  0  0  0  0  0
   -4.8777   -1.3109    0.6709 C   0  0  0  0  0  0  0  0  0  0  0  0
   -5.6809   -2.0706   -0.3853 C   0  0  0  0  0  0  0  0  0  0  0  0
   -7.0453   -1.6553   -0.4244 O   0  0  0  0  0  0  0  0  0  0  0  0
   -7.8519   -2.2449    0.5968 C   0  0  0  0  0  0  0  0  0  0  0  0
   -9.2902   -1.7293    0.4703 C   0  0  0  0  0  0  0  0  0  0  0  0
   -9.4168   -0.3285    0.7331 O   0  0  0  0  0  0  0  0  0  0  0  0
   -9.2893    0.0120    2.1097 C   0  0  0  0  0  0  0  0  0  0  0  0
   -9.7033    1.4063    2.2996 C   0  0  0  0  0  0  0  0  0  0  0  0
  -10.0452    2.5476    2.4597 C   0  0  0  0  0  0  0  0  0  0  0  0
    5.1272    0.2570   -2.2781 H   0  0  0  0  0  0  0  0  0  0  0  0
    6.9727   -1.2804   -2.5986 H   0  0  0  0  0  0  0  0  0  0  0  0
    8.9132   -2.5369   -1.7031 H   0  0  0  0  0  0  0  0  0  0  0  0
   10.3645   -3.1431    0.1924 H   0  0  0  0  0  0  0  0  0  0  0  0
    9.9307   -2.2270    2.4403 H   0  0  0  0  0  0  0  0  0  0  0  0
    8.5779   -0.8054    3.9478 H   0  0  0  0  0  0  0  0  0  0  0  0
    6.7160    0.7355    4.3045 H   0  0  0  0  0  0  0  0  0  0  0  0
    4.8093    2.0278    3.4389 H   0  0  0  0  0  0  0  0  0  0  0  0
    3.3888    2.7257    1.5688 H   0  0  0  0  0  0  0  0  0  0  0  0
    1.8271    1.4942    0.1330 H   0  0  0  0  0  0  0  0  0  0  0  0
    0.2941    2.7312   -1.1147 H   0  0  0  0  0  0  0  0  0  0  0  0
    1.5669    3.3114   -2.1791 H   0  0  0  0  0  0  0  0  0  0  0  0
    1.7296    1.0511   -3.2496 H   0  0  0  0  0  0  0  0  0  0  0  0
    0.4293    0.4466   -2.2307 H   0  0  0  0  0  0  0  0  0  0  0  0
   -1.8894    1.6564   -4.5454 H   0  0  0  0  0  0  0  0  0  0  0  0
   -1.3752    0.2714   -3.5764 H   0  0  0  0  0  0  0  0  0  0  0  0
   -1.8990    3.0150   -2.2951 H   0  0  0  0  0  0  0  0  0  0  0  0
   -3.2793    1.9807   -2.6858 H   0  0  0  0  0  0  0  0  0  0  0  0
   -3.8550    0.3709   -1.2942 H   0  0  0  0  0  0  0  0  0  0  0  0
   -2.4944   -0.6399   -1.8073 H   0  0  0  0  0  0  0  0  0  0  0  0
   -1.6366   -0.7493    0.4932 H   0  0  0  0  0  0  0  0  0  0  0  0
   -2.8938    0.3063    1.0977 H   0  0  0  0  0  0  0  0  0  0  0  0
   -5.1801   -1.6390    1.6731 H   0  0  0  0  0  0  0  0  0  0  0  0
   -5.0914   -0.2348    0.6204 H   0  0  0  0  0  0  0  0  0  0  0  0
   -5.6011   -3.1555   -0.2433 H   0  0  0  0  0  0  0  0  0  0  0  0
   -5.2547   -1.8630   -1.3745 H   0  0  0  0  0  0  0  0  0  0  0  0
   -7.8493   -3.3327    0.4667 H   0  0  0  0  0  0  0  0  0  0  0  0
   -7.4371   -2.0045    1.5784 H   0  0  0  0  0  0  0  0  0  0  0  0
   -9.6334   -1.8790   -0.5606 H   0  0  0  0  0  0  0  0  0  0  0  0
   -9.9649   -2.2895    1.1294 H   0  0  0  0  0  0  0  0  0  0  0  0
   -8.2477   -0.1072    2.4234 H   0  0  0  0  0  0  0  0  0  0  0  0
   -9.9214   -0.6437    2.7195 H   0  0  0  0  0  0  0  0  0  0  0  0
  -10.3469    3.5629    2.5886 H   0  0  0  0  0  0  0  0  0  0  0  0
  1  2  2  0
  2  3  1  0
  3  4  2  0
  4  5  1  0
  5  6  2  0
  4  7  1  0
  7  8  2  0
  8  9  1  0
  9 10  2  0
 10 11  1  0
 11 12  2  0
 12 13  1  0
 13 14  2  0
 14 15  1  0
 15 16  2  0
 16 17  1  0
 17 18  2  0
  2 19  1  0
 19 20  1  0
 20 21  1  0
 21 22  1  0
 22 23  1  0
 23 24  1  0
 24 25  1  0
 25 26  1  0
 26 27  1  0
 27 28  1  0
 28 29  1  0
 29 30  1  0
 30 31  1  0
 31 32  1  0
 32 33  1  0
 33 34  1  0
 34 35  1  0
 35 36  1  0
 36 37  3  0
 18  3  1  0
 16  5  1  0
 13  6  1  0
  9  6  1  0
  7 38  1  0
  8 39  1  0
 10 40  1  0
 11 41  1  0
 12 42  1  0
 14 43  1  0
 15 44  1  0
 17 45  1  0
 18 46  1  0
 19 47  1  0
 20 48  1  0
 20 49  1  0
 21 50  1  0
 21 51  1  0
 23 52  1  0
 23 53  1  0
 24 54  1  0
 24 55  1  0
 26 56  1  0
 26 57  1  0
 27 58  1  0
 27 59  1  0
 29 60  1  0
 29 61  1  0
 30 62  1  0
 30 63  1  0
 32 64  1  0
 32 65  1  0
 33 66  1  0
 33 67  1  0
 35 68  1  0
 35 69  1  0
 37 70  1  0
M  END
