@<TRIPOS>MOLECULE
*****
 70 73 0 0 0
SMALL
GASTEIGER

@<TRIPOS>ATOM
      1 O           3.9741    2.3753   -2.0448 O.2     1  UNL1       -0.2702
      2 C           3.5102    1.9778   -0.9838 C.2     1  UNL1        0.2447
      3 C           4.3959    1.4838    0.1056 C.ar    1  UNL1        0.0444
      4 C           5.4544    0.5717   -0.1451 C.ar    1  UNL1       -0.0046
      5 C           6.2847    0.1950    0.9437 C.ar    1  UNL1       -0.0017
      6 C           7.3680   -0.7058    0.7467 C.ar    1  UNL1       -0.0025
      7 C           5.7333    0.0043   -1.4091 C.ar    1  UNL1       -0.0527
      8 C           6.7967   -0.8826   -1.6011 C.ar    1  UNL1       -0.0534
      9 C           7.6237   -1.2428   -0.5352 C.ar    1  UNL1       -0.0167
     10 C           8.7031   -2.1213   -0.7197 C.ar    1  UNL1       -0.0540
     11 C           9.5257   -2.4688    0.3495 C.ar    1  UNL1       -0.0606
     12 C           9.2761   -1.9468    1.6175 C.ar    1  UNL1       -0.0540
     13 C           8.2027   -1.0682    1.8315 C.ar    1  UNL1       -0.0167
     14 C           7.9468   -0.5390    3.1017 C.ar    1  UNL1       -0.0534
     15 C           6.8826    0.3413    3.3043 C.ar    1  UNL1       -0.0534
     16 C           6.0499    0.7174    2.2417 C.ar    1  UNL1       -0.0167
     17 C           4.9927    1.6105    2.4511 C.ar    1  UNL1       -0.0533
     18 C           4.1758    1.9965    1.3926 C.ar    1  UNL1       -0.0485
     19 N           2.1589    1.9592   -0.7020 N.am    1  UNL1       -0.3091
     20 C           1.1811    2.4186   -1.6728 C.3     1  UNL1        0.0353
     21 C           0.8244    1.3509   -2.7104 C.3     1  UNL1        0.0633
     22 O          -0.0775    1.8820   -3.6811 O.3     1  UNL1       -0.3760
     23 C          -1.4066    1.3659   -3.6061 C.3     1  UNL1        0.0711
     24 C          -2.2081    1.9749   -2.4502 C.3     1  UNL1        0.0711
     25 O          -1.9934    1.2888   -1.2092 O.3     1  UNL1       -0.3752
     26 C          -2.8075    0.1219   -1.0816 C.3     1  UNL1        0.0711
     27 C          -2.6762   -0.4479    0.3328 C.3     1  UNL1        0.0711
     28 O          -3.4880   -1.6076    0.5237 O.3     1  UNL1       -0.3752
     29 C          -4.8777   -1.3109    0.6709 C.3     1  UNL1        0.0711
     30 C          -5.6809   -2.0706   -0.3853 C.3     1  UNL1        0.0711
     31 O          -7.0453   -1.6553   -0.4244 O.3     1  UNL1       -0.3752
     32 C          -7.8519   -2.2449    0.5968 C.3     1  UNL1        0.0711
     33 C          -9.2902   -1.7293    0.4703 C.3     1  UNL1        0.0722
     34 O          -9.4168   -0.3285    0.7331 O.3     1  UNL1       -0.3651
     35 C          -9.2893    0.0120    2.1097 C.3     1  UNL1        0.1081
     36 C          -9.7033    1.4063    2.2996 C.1     1  UNL1       -0.0773
     37 C         -10.0452    2.5476    2.4597 C.1     1  UNL1       -0.1169
     38 H           5.1272    0.2570   -2.2781 H       1  UNL1        0.0624
     39 H           6.9727   -1.2804   -2.5986 H       1  UNL1        0.0624
     40 H           8.9132   -2.5369   -1.7031 H       1  UNL1        0.0624
     41 H          10.3645   -3.1431    0.1924 H       1  UNL1        0.0618
     42 H           9.9307   -2.2270    2.4403 H       1  UNL1        0.0624
     43 H           8.5779   -0.8054    3.9478 H       1  UNL1        0.0624
     44 H           6.7160    0.7355    4.3045 H       1  UNL1        0.0624
     45 H           4.8093    2.0278    3.4389 H       1  UNL1        0.0624
     46 H           3.3888    2.7257    1.5688 H       1  UNL1        0.0625
     47 H           1.8271    1.4942    0.1330 H       1  UNL1        0.1491
     48 H           0.2941    2.7312   -1.1147 H       1  UNL1        0.0485
     49 H           1.5669    3.3114   -2.1791 H       1  UNL1        0.0485
     50 H           1.7296    1.0511   -3.2496 H       1  UNL1        0.0575
     51 H           0.4293    0.4466   -2.2307 H       1  UNL1        0.0575
     52 H          -1.8894    1.6564   -4.5454 H       1  UNL1        0.0583
     53 H          -1.3752    0.2714   -3.5764 H       1  UNL1        0.0583
     54 H          -1.8990    3.0150   -2.2951 H       1  UNL1        0.0583
     55 H          -3.2793    1.9807   -2.6858 H       1  UNL1        0.0583
     56 H          -3.8550    0.3709   -1.2942 H       1  UNL1        0.0583
     57 H          -2.4944   -0.6399   -1.8073 H       1  UNL1        0.0583
     58 H          -1.6366   -0.7493    0.4932 H       1  UNL1        0.0583
     59 H          -2.8938    0.3063    1.0977 H       1  UNL1        0.0583
     60 H          -5.1801   -1.6390    1.6731 H       1  UNL1        0.0583
     61 H          -5.0914   -0.2348    0.6204 H       1  UNL1        0.0583
     62 H          -5.6011   -3.1555   -0.2433 H       1  UNL1        0.0583
     63 H          -5.2547   -1.8630   -1.3745 H       1  UNL1        0.0583
     64 H          -7.8493   -3.3327    0.4667 H       1  UNL1        0.0583
     65 H          -7.4371   -2.0045    1.5784 H       1  UNL1        0.0583
     66 H          -9.6334   -1.8790   -0.5606 H       1  UNL1        0.0583
     67 H          -9.9649   -2.2895    1.1294 H       1  UNL1        0.0583
     68 H          -8.2477   -0.1072    2.4234 H       1  UNL1        0.0697
     69 H          -9.9214   -0.6437    2.7195 H       1  UNL1        0.0697
     70 H         -10.3469    3.5629    2.5886 H       1  UNL1        0.1229
@<TRIPOS>BOND
     1     1     2    2
     2     2     3    1
     3     3     4   ar
     4     4     5   ar
     5     5     6   ar
     6     4     7   ar
     7     7     8   ar
     8     8     9   ar
     9     9    10   ar
    10    10    11   ar
    11    11    12   ar
    12    12    13   ar
    13    13    14   ar
    14    14    15   ar
    15    15    16   ar
    16    16    17   ar
    17    17    18   ar
    18     2    19   am
    19    19    20    1
    20    20    21    1
    21    21    22    1
    22    22    23    1
    23    23    24    1
    24    24    25    1
    25    25    26    1
    26    26    27    1
    27    27    28    1
    28    28    29    1
    29    29    30    1
    30    30    31    1
    31    31    32    1
    32    32    33    1
    33    33    34    1
    34    34    35    1
    35    35    36    1
    36    36    37    3
    37    18     3   ar
    38    16     5   ar
    39    13     6   ar
    40     9     6   ar
    41     7    38    1
    42     8    39    1
    43    10    40    1
    44    11    41    1
    45    12    42    1
    46    14    43    1
    47    15    44    1
    48    17    45    1
    49    18    46    1
    50    19    47    1
    51    20    48    1
    52    20    49    1
    53    21    50    1
    54    21    51    1
    55    23    52    1
    56    23    53    1
    57    24    54    1
    58    24    55    1
    59    26    56    1
    60    26    57    1
    61    27    58    1
    62    27    59    1
    63    29    60    1
    64    29    61    1
    65    30    62    1
    66    30    63    1
    67    32    64    1
    68    32    65    1
    69    33    66    1
    70    33    67    1
    71    35    68    1
    72    35    69    1
    73    37    70    1
