
     RDKit          3D

 26 29  0  0  0  0  0  0  0  0999 V2000
   -3.4134   -0.8332   -0.0693 C   0  0  0  0  0  0  0  0  0  0  0  0
   -3.0233    0.5056   -0.0736 C   0  0  0  0  0  0  0  0  0  0  0  0
   -1.6649    0.8543   -0.0462 C   0  0  0  0  0  0  0  0  0  0  0  0
   -0.6882   -0.1680   -0.0140 C   0  0  0  0  0  0  0  0  0  0  0  0
   -1.0847   -1.5255   -0.0097 C   0  0  0  0  0  0  0  0  0  0  0  0
   -2.4510   -1.8419   -0.0376 C   0  0  0  0  0  0  0  0  0  0  0  0
   -0.1033   -2.5254    0.0225 C   0  0  0  0  0  0  0  0  0  0  0  0
    1.2539   -2.1941    0.0500 C   0  0  0  0  0  0  0  0  0  0  0  0
    1.6649   -0.8543    0.0462 C   0  0  0  0  0  0  0  0  0  0  0  0
    3.0233   -0.5056    0.0736 C   0  0  0  0  0  0  0  0  0  0  0  0
    3.4134    0.8332    0.0693 C   0  0  0  0  0  0  0  0  0  0  0  0
    2.4510    1.8419    0.0376 C   0  0  0  0  0  0  0  0  0  0  0  0
    1.0847    1.5255    0.0096 C   0  0  0  0  0  0  0  0  0  0  0  0
    0.6882    0.1680    0.0140 C   0  0  0  0  0  0  0  0  0  0  0  0
    0.1033    2.5254   -0.0224 C   0  0  0  0  0  0  0  0  0  0  0  0
   -1.2539    2.1941   -0.0500 C   0  0  0  0  0  0  0  0  0  0  0  0
   -4.4691   -1.0909   -0.0907 H   0  0  0  0  0  0  0  0  0  0  0  0
   -3.7895    1.2771   -0.0986 H   0  0  0  0  0  0  0  0  0  0  0  0
   -2.7761   -2.8798   -0.0348 H   0  0  0  0  0  0  0  0  0  0  0  0
   -0.3873   -3.5754    0.0263 H   0  0  0  0  0  0  0  0  0  0  0  0
    1.9892   -2.9952    0.0746 H   0  0  0  0  0  0  0  0  0  0  0  0
    3.7895   -1.2771    0.0986 H   0  0  0  0  0  0  0  0  0  0  0  0
    4.4691    1.0909    0.0907 H   0  0  0  0  0  0  0  0  0  0  0  0
    2.7761    2.8798    0.0348 H   0  0  0  0  0  0  0  0  0  0  0  0
    0.3873    3.5754   -0.0263 H   0  0  0  0  0  0  0  0  0  0  0  0
   -1.9892    2.9952   -0.0746 H   0  0  0  0  0  0  0  0  0  0  0  0
  1  2  2  0
  2  3  1  0
  3  4  1  0
  4  5  1  0
  5  6  2  0
  5  7  1  0
  7  8  2  0
  8  9  1  0
  9 10  2  0
 10 11  1  0
 11 12  2  0
 12 13  1  0
 13 14  1  0
 13 15  2  0
 15 16  1  0
  6  1  1  0
 16  3  2  0
 14  4  2  0
 14  9  1  0
  1 17  1  0
  2 18  1  0
  6 19  1  0
  7 20  1  0
  8 21  1  0
 10 22  1  0
 11 23  1  0
 12 24  1  0
 15 25  1  0
 16 26  1  0
M  END
