@<TRIPOS>MOLECULE
PYR
   26    29     1     0     0
SMALL
bcc


@<TRIPOS>ATOM
      1 C1          -3.4130    -0.8330    -0.0690 ca         1 PYR         -0.127000
      2 C2          -3.0230     0.5060    -0.0740 ca         1 PYR         -0.114000
      3 C3          -1.6650     0.8540    -0.0460 ca         1 PYR         -0.033000
      4 C4          -0.6880    -0.1680    -0.0140 ca         1 PYR         -0.015000
      5 C5          -1.0850    -1.5260    -0.0100 ca         1 PYR         -0.033000
      6 C6          -2.4510    -1.8420    -0.0380 ca         1 PYR         -0.114000
      7 C7          -0.1030    -2.5250     0.0220 ca         1 PYR         -0.115000
      8 C8           1.2540    -2.1940     0.0500 ca         1 PYR         -0.115000
      9 C9           1.6650    -0.8540     0.0460 ca         1 PYR         -0.033000
     10 C10          3.0230    -0.5060     0.0740 ca         1 PYR         -0.114000
     11 C11          3.4130     0.8330     0.0690 ca         1 PYR         -0.127000
     12 C12          2.4510     1.8420     0.0380 ca         1 PYR         -0.114000
     13 C13          1.0850     1.5260     0.0100 ca         1 PYR         -0.033000
     14 C14          0.6880     0.1680     0.0140 ca         1 PYR         -0.015000
     15 C15          0.1030     2.5250    -0.0220 ca         1 PYR         -0.115000
     16 C16         -1.2540     2.1940    -0.0500 ca         1 PYR         -0.115000
     17 H1          -4.4690    -1.0910    -0.0910 ha         1 PYR          0.132800
     18 H2          -3.7890     1.2770    -0.0990 ha         1 PYR          0.133800
     19 H3          -2.7760    -2.8800    -0.0350 ha         1 PYR          0.133800
     20 H4          -0.3870    -3.5750     0.0260 ha         1 PYR          0.132800
     21 H5           1.9890    -2.9950     0.0750 ha         1 PYR          0.132800
     22 H6           3.7890    -1.2770     0.0990 ha         1 PYR          0.133800
     23 H7           4.4690     1.0910     0.0910 ha         1 PYR          0.132800
     24 H8           2.7760     2.8800     0.0350 ha         1 PYR          0.133800
     25 H9           0.3870     3.5750    -0.0260 ha         1 PYR          0.132800
     26 H10         -1.9890     2.9950    -0.0750 ha         1 PYR          0.132800
@<TRIPOS>BOND
     1     1     2 ar  
     2     2     3 ar  
     3     3     4 ar  
     4     4     5 ar  
     5     5     6 ar  
     6     5     7 ar  
     7     7     8 ar  
     8     8     9 ar  
     9     9    10 ar  
    10    10    11 ar  
    11    11    12 ar  
    12    12    13 ar  
    13    13    14 ar  
    14    13    15 ar  
    15    15    16 ar  
    16     6     1 ar  
    17    16     3 ar  
    18    14     4 ar  
    19    14     9 ar  
    20     1    17 1   
    21     2    18 1   
    22     6    19 1   
    23     7    20 1   
    24     8    21 1   
    25    10    22 1   
    26    11    23 1   
    27    12    24 1   
    28    15    25 1   
    29    16    26 1   
@<TRIPOS>SUBSTRUCTURE
     1 PYR         1 TEMP              0 ****  ****    0 ROOT
